
     RDKit          3D

 23 24  0  0  0  0  0  0  0  0999 V2000
   -6.6730  -32.5650  -14.1510 C   0  0  1  0  0  0  0  0  0  0  0  0
   -8.0310  -32.3280  -13.4880 C   0  0  1  0  0  0  0  0  0  0  0  0
   -8.8660  -31.3270  -14.2430 C   0  0  2  0  0  0  0  0  0  0  0  0
   -8.0650  -30.0360  -14.4600 C   0  0  1  0  0  0  0  0  0  0  0  0
   -6.7470  -30.3720  -15.1730 C   0  0  1  0  0  0  0  0  0  0  0  0
   -5.8890  -29.1670  -15.3170 C   0  0  0  0  0  0  0  0  0  0  0  0
   -6.9170  -33.2680  -15.3410 O   0  0  0  0  0  0  0  0  0  0  0  0
   -8.7750  -33.5200  -13.3250 O   0  0  0  0  0  0  0  0  0  0  0  0
  -10.0980  -30.9850  -13.5320 O   0  0  0  0  0  0  0  0  0  0  0  0
   -8.8850  -29.0360  -15.1540 O   0  0  0  0  0  0  0  0  0  0  0  0
   -5.9890  -31.3480  -14.4570 O   0  0  0  0  0  0  0  0  0  0  0  0
   -4.7030  -29.4280  -16.1130 O   0  0  0  0  0  0  0  0  0  0  0  0
   -5.7640  -33.7080  -16.0590 C   0  0  2  0  0  0  0  0  0  0  0  0
   -6.0860  -34.3690  -17.4100 C   0  0  1  0  0  0  0  0  0  0  0  0
   -6.8710  -35.6610  -17.2610 C   0  0  2  0  0  0  0  0  0  0  0  0
   -6.1180  -36.5550  -16.2750 C   0  0  1  0  0  0  0  0  0  0  0  0
   -6.0110  -35.7150  -14.9870 C   0  0  1  0  0  0  0  0  0  0  0  0
   -5.4540  -36.2070  -13.6530 C   0  0  0  0  0  0  0  0  0  0  0  0
   -6.7610  -33.3210  -18.1660 O   0  0  0  0  0  0  0  0  0  0  0  0
   -7.2700  -36.3020  -18.5490 O   0  0  0  0  0  0  0  0  0  0  0  0
   -6.8970  -37.7460  -16.1220 O   0  0  0  0  0  0  0  0  0  0  0  0
   -5.1160  -34.6370  -15.2770 O   0  0  0  0  0  0  0  0  0  0  0  0
   -6.1580  -37.3920  -13.2870 O   0  0  0  0  0  0  0  0  0  0  0  0
  1  2  1  0
  1  7  1  6
  1 11  1  0
  2  3  1  0
  2  8  1  6
 13  7  1  1
 11  5  1  0
  3  4  1  0
  3  9  1  1
  4  5  1  0
  4 10  1  6
  5  6  1  1
  6 12  1  0
 13 14  1  0
 13 22  1  0
 14 15  1  0
 14 19  1  6
 22 17  1  0
 15 16  1  0
 15 20  1  6
 16 17  1  0
 16 21  1  1
 17 18  1  1
 18 23  1  0
M  END
$$$$

     RDKit          3D

 13 12  0  0  0  0  0  0  0  0999 V2000
  -24.3940  -18.6200  -18.4440 C   0  0  0  0  0  0  0  0  0  0  0  0
  -25.3610  -19.4130  -18.5220 O   0  0  0  0  0  0  0  0  0  0  0  0
  -23.5040  -18.5690  -17.5000 O   0  0  0  0  0  0  0  0  0  0  0  0
  -24.2530  -17.6600  -19.5940 C   0  0  0  0  0  0  0  0  0  0  0  0
  -25.4630  -16.7880  -19.7210 C   0  0  1  0  0  0  0  0  0  0  0  0
  -25.8140  -16.4590  -18.3380 O   0  0  0  0  0  0  0  0  0  0  0  0
  -25.2090  -15.5400  -20.5490 C   0  0  0  0  0  0  0  0  0  0  0  0
  -24.0460  -14.7520  -19.9440 C   0  0  0  0  0  0  0  0  0  0  0  0
  -22.8350  -15.0950  -20.2120 O   0  0  0  0  0  0  0  0  0  0  0  0
  -24.3630  -13.7810  -19.2120 O   0  0  0  0  0  0  0  0  0  0  0  0
  -26.5530  -17.5700  -20.4420 C   0  0  0  0  0  0  0  0  0  0  0  0
  -26.2570  -18.2940  -21.4570 O   0  0  0  0  0  0  0  0  0  0  0  0
  -27.6680  -17.4450  -19.9150 O   0  0  0  0  0  0  0  0  0  0  0  0
  1  2  1  0
  1  3  1  0
  1  4  1  0
  4  5  1  0
  5  6  1  1
  5  7  1  0
  5 11  1  0
  7  8  1  0
 11 12  1  0
 11 13  1  0
  8  9  1  0
  8 10  1  0
M  END
$$$$
