
     RDKit          3D

 31 33  0  0  0  0  0  0  0  0999 V2000
  223.8390  173.8670  272.7960 P   0  0  0  0  0  0  0  0  0  0  0  0
  224.1350  174.5070  271.4820 O   0  0  0  0  0  0  0  0  0  0  0  0
  222.4610  174.4040  273.3380 O   0  0  0  0  0  0  0  0  0  0  0  0
  224.9840  174.2010  273.8320 O   0  0  0  0  0  0  0  0  0  0  0  0
  223.1850  171.5710  274.0550 P   0  0  0  0  0  0  0  0  0  0  0  0
  223.0540  172.6910  275.0320 O   0  0  0  0  0  0  0  0  0  0  0  0
  224.1750  170.4870  274.5740 O   0  0  0  0  0  0  0  0  0  0  0  0
  223.7240  172.1960  272.6000 N   0  0  0  0  0  0  0  0  0  0  0  0
  221.0540  171.2410  272.4750 P   0  0  0  0  0  0  0  0  0  0  0  0
  220.8490  172.6950  272.2860 O   0  0  0  0  0  0  0  0  0  0  0  0
  219.7740  170.4050  272.4790 O   0  0  0  0  0  0  0  0  0  0  0  0
  221.7840  170.9380  273.8370 O   0  0  0  0  0  0  0  0  0  0  0  0
  222.0590  170.7290  271.3770 O   0  0  0  0  0  0  0  0  0  0  0  0
  222.3760  169.3290  271.2790 C   0  0  0  0  0  0  0  0  0  0  0  0
  222.6670  168.9900  269.8410 C   0  0  1  0  0  0  0  0  0  0  0  0
  221.6760  168.0620  269.3610 O   0  0  0  0  0  0  0  0  0  0  0  0
  222.6130  170.1610  268.8690 C   0  0  1  0  0  0  0  0  0  0  0  0
  223.8740  170.8130  268.8010 O   0  0  0  0  0  0  0  0  0  0  0  0
  222.2780  169.4730  267.5490 C   0  0  1  0  0  0  0  0  0  0  0  0
  223.4550  168.9300  266.9720 O   0  0  0  0  0  0  0  0  0  0  0  0
  221.3750  168.3260  268.0040 C   0  0  2  0  0  0  0  0  0  0  0  0
  219.9500  168.6030  267.9020 N   0  0  0  0  0  0  0  0  0  0  0  0
  219.1200  169.0720  268.8850 C   0  0  0  0  0  0  0  0  0  0  0  0
  217.8710  169.2130  268.5100 N   0  0  0  0  0  0  0  0  0  0  0  0
  217.8820  168.8010  267.1870 C   0  0  0  0  0  0  0  0  0  0  0  0
  216.8660  168.7110  266.2170 C   0  0  0  0  0  0  0  0  0  0  0  0
  215.5930  169.0430  266.4400 N   0  0  0  0  0  0  0  0  0  0  0  0
  217.2100  168.2620  264.9900 N   0  0  0  0  0  0  0  0  0  0  0  0
  218.4830  167.9350  264.7570 C   0  0  0  0  0  0  0  0  0  0  0  0
  219.5230  167.9730  265.5940 N   0  0  0  0  0  0  0  0  0  0  0  0
  219.1520  168.4220  266.7990 C   0  0  0  0  0  0  0  0  0  0  0  0
  1  2  1  0
  1  3  1  0
  1  4  1  0
  1  8  1  0
  8  5  1  0
  5  6  1  0
  5  7  1  0
  5 12  1  0
 12  9  1  0
  9 10  1  0
  9 11  1  0
  9 13  1  0
 13 14  1  0
 15 14  1  1
 15 16  1  0
 15 17  1  0
 16 21  1  0
 17 18  1  6
 17 19  1  0
 21 19  1  0
 21 22  1  1
 19 20  1  1
 22 23  1  0
 22 31  1  0
 23 24  1  0
 31 25  1  0
 31 30  1  0
 24 25  1  0
 25 26  1  0
 26 27  1  0
 26 28  1  0
 28 29  1  0
 29 30  1  0
M  END
