
     RDKit          3D

 31 33  0  0  0  0  0  0  0  0999 V2000
  188.4680  238.4400  272.7540 P   0  0  0  0  0  0  0  0  0  0  0  0
  188.1710  237.8010  271.4400 O   0  0  0  0  0  0  0  0  0  0  0  0
  189.8450  237.9020  273.2960 O   0  0  0  0  0  0  0  0  0  0  0  0
  187.3220  238.1080  273.7900 O   0  0  0  0  0  0  0  0  0  0  0  0
  189.1250  240.7350  274.0130 P   0  0  0  0  0  0  0  0  0  0  0  0
  189.2540  239.6150  274.9900 O   0  0  0  0  0  0  0  0  0  0  0  0
  188.1360  241.8200  274.5310 O   0  0  0  0  0  0  0  0  0  0  0  0
  188.5840  240.1110  272.5580 N   0  0  0  0  0  0  0  0  0  0  0  0
  191.2550  241.0630  272.4320 P   0  0  0  0  0  0  0  0  0  0  0  0
  191.4590  239.6080  272.2440 O   0  0  0  0  0  0  0  0  0  0  0  0
  192.5370  241.8960  272.4360 O   0  0  0  0  0  0  0  0  0  0  0  0
  190.5260  241.3660  273.7950 O   0  0  0  0  0  0  0  0  0  0  0  0
  190.2510  241.5760  271.3350 O   0  0  0  0  0  0  0  0  0  0  0  0
  189.9350  242.9760  271.2370 C   0  0  0  0  0  0  0  0  0  0  0  0
  189.6450  243.3150  269.7990 C   0  0  1  0  0  0  0  0  0  0  0  0
  190.6370  244.2420  269.3190 O   0  0  0  0  0  0  0  0  0  0  0  0
  189.6980  242.1440  268.8270 C   0  0  1  0  0  0  0  0  0  0  0  0
  188.4360  241.4930  268.7590 O   0  0  0  0  0  0  0  0  0  0  0  0
  190.0330  242.8310  267.5070 C   0  0  1  0  0  0  0  0  0  0  0  0
  188.8570  243.3760  266.9290 O   0  0  0  0  0  0  0  0  0  0  0  0
  190.9380  243.9770  267.9620 C   0  0  2  0  0  0  0  0  0  0  0  0
  192.3630  243.6990  267.8600 N   0  0  0  0  0  0  0  0  0  0  0  0
  193.1920  243.2290  268.8420 C   0  0  0  0  0  0  0  0  0  0  0  0
  194.4410  243.0860  268.4670 N   0  0  0  0  0  0  0  0  0  0  0  0
  194.4300  243.4980  267.1440 C   0  0  0  0  0  0  0  0  0  0  0  0
  195.4460  243.5870  266.1740 C   0  0  0  0  0  0  0  0  0  0  0  0
  196.7190  243.2530  266.3970 N   0  0  0  0  0  0  0  0  0  0  0  0
  195.1020  244.0360  264.9470 N   0  0  0  0  0  0  0  0  0  0  0  0
  193.8300  244.3640  264.7140 C   0  0  0  0  0  0  0  0  0  0  0  0
  192.7900  244.3280  265.5510 N   0  0  0  0  0  0  0  0  0  0  0  0
  193.1600  243.8780  266.7560 C   0  0  0  0  0  0  0  0  0  0  0  0
  1  2  1  0
  1  3  1  0
  1  4  1  0
  1  8  1  0
  8  5  1  0
  5  6  1  0
  5  7  1  0
  5 12  1  0
 12  9  1  0
  9 10  1  0
  9 11  1  0
  9 13  1  0
 13 14  1  0
 15 14  1  1
 15 16  1  0
 15 17  1  0
 16 21  1  0
 17 18  1  6
 17 19  1  0
 21 19  1  0
 21 22  1  1
 19 20  1  1
 22 23  1  0
 22 31  1  0
 23 24  1  0
 31 25  1  0
 31 30  1  0
 24 25  1  0
 25 26  1  0
 26 27  1  0
 26 28  1  0
 28 29  1  0
 29 30  1  0
M  END
