
     RDKit          3D

 17 17  0  0  0  0  0  0  0  0999 V2000
  -30.3590   42.3020   14.1470 N   0  0  0  0  0  0  0  0  0  0  0  0
  -31.0480   42.9420   13.0250 C   0  0  1  0  0  0  0  0  0  0  0  0
  -30.0700   43.7710   12.1750 C   0  0  0  0  0  0  0  0  0  0  0  0
  -30.4740   44.7690   11.5760 O   0  0  0  0  0  0  0  0  0  0  0  0
  -31.6570   41.8360   12.1520 C   0  0  0  0  0  0  0  0  0  0  0  0
  -23.5500   44.5220    9.5580 C   0  0  0  0  0  0  0  0  0  0  0  0
  -26.2170   45.1650    9.9900 C   0  0  0  0  0  0  0  0  0  0  0  0
  -29.9040   42.9640   15.2190 C   0  0  0  0  0  0  0  0  0  0  0  0
  -24.4230   43.7120   10.5320 C   0  0  0  0  0  0  0  0  0  0  0  0
  -25.7080   44.0920   10.6340 C   0  0  0  0  0  0  0  0  0  0  0  0
  -27.8280   43.8860   11.4340 C   0  0  0  0  0  0  0  0  0  0  0  0
  -30.0760   44.2920   15.3140 N   0  0  0  0  0  0  0  0  0  0  0  0
  -29.2720   42.2920   16.1920 N   0  0  0  0  0  0  0  0  0  0  0  0
  -26.5770   43.4010   11.4080 N   0  0  0  0  0  0  0  0  0  0  0  0
  -28.8040   43.2970   12.1500 N   0  0  0  0  0  0  0  0  0  0  0  0
  -23.9690   42.7560   11.1710 O   0  0  0  0  0  0  0  0  0  0  0  0
  -27.8940   45.2440   10.4470 S   0  0  0  0  0  0  0  0  0  0  0  0
  1  2  1  0
  1  8  1  0
  2  3  1  0
  2  5  1  6
  8 12  1  0
  8 13  1  0
  3  4  1  0
  3 15  1  0
 15 11  1  0
  6  9  1  0
  9 10  1  0
  9 16  1  0
  7 10  1  0
  7 17  1  0
 10 14  1  0
 17 11  1  0
 14 11  1  0
M  END
