
     RDKit          3D

 14 15  0  0  0  0  0  0  0  0999 V2000
  -17.7160  -13.7720   -1.9770 N   0  0  0  0  0  0  0  0  0  0  0  0
  -16.6340  -16.1050   -7.4390 C   0  0  1  0  0  0  0  0  0  0  0  0
  -17.4820  -15.8460   -6.1670 C   0  0  0  0  0  0  0  0  0  0  0  0
  -17.4640  -14.6290   -4.0390 C   0  0  1  0  0  0  0  0  0  0  0  0
  -16.9550  -13.7600   -3.1310 C   0  0  0  0  0  0  0  0  0  0  0  0
  -16.9370  -14.9630   -5.2050 N   0  0  0  0  0  0  0  0  0  0  0  0
  -14.3090  -15.1220   -7.3410 C   0  0  0  0  0  0  0  0  0  0  0  0
  -17.4140  -16.4090   -8.5600 O   0  0  0  0  0  0  0  0  0  0  0  0
  -15.7280  -14.9010   -7.8310 C   0  0  1  0  0  0  0  0  0  0  0  0
  -15.8080  -14.8890   -9.3460 C   0  0  0  0  0  0  0  0  0  0  0  0
  -16.5830  -16.1920   -9.6650 C   0  0  0  0  0  0  0  0  0  0  0  0
  -18.6820  -14.5430   -1.9770 N   0  0  0  0  0  0  0  0  0  0  0  0
  -18.5910  -16.3890   -6.0420 O   0  0  0  0  0  0  0  0  0  0  0  0
  -18.8740  -15.4220   -3.4110 S   0  0  0  0  0  0  0  0  0  0  0  0
  1  5  1  0
  1 12  1  0
  5  4  1  0
 12 14  1  0
  2  3  1  1
  2  8  1  0
  2  9  1  0
  3  6  1  0
  3 13  1  0
  8 11  1  0
  9  7  1  6
  9 10  1  0
  4  6  1  1
  4 14  1  0
 11 10  1  0
M  END
