
     RDKit          3D

 14 15  0  0  0  0  0  0  0  0999 V2000
  -22.4980   27.2270  -59.4300 N   0  0  0  0  0  0  0  0  0  0  0  0
  -21.8470   30.4000  -54.2540 C   0  0  1  0  0  0  0  0  0  0  0  0
  -21.8460   30.2380  -55.7920 C   0  0  0  0  0  0  0  0  0  0  0  0
  -22.2540   28.6090  -57.6280 C   0  0  1  0  0  0  0  0  0  0  0  0
  -22.6350   27.3780  -58.0480 C   0  0  0  0  0  0  0  0  0  0  0  0
  -22.2420   28.9880  -56.3380 N   0  0  0  0  0  0  0  0  0  0  0  0
  -21.3770   27.9220  -53.5560 C   0  0  0  0  0  0  0  0  0  0  0  0
  -22.7200   31.3960  -53.7840 O   0  0  0  0  0  0  0  0  0  0  0  0
  -22.2690   29.1530  -53.4250 C   0  0  1  0  0  0  0  0  0  0  0  0
  -22.1600   29.8390  -52.0710 C   0  0  0  0  0  0  0  0  0  0  0  0
  -22.8410   31.2040  -52.3700 C   0  0  0  0  0  0  0  0  0  0  0  0
  -22.0600   28.2400  -60.0200 N   0  0  0  0  0  0  0  0  0  0  0  0
  -21.5100   31.1970  -56.4760 O   0  0  0  0  0  0  0  0  0  0  0  0
  -21.7180   29.6090  -58.9750 S   0  0  0  0  0  0  0  0  0  0  0  0
  1  5  1  0
  1 12  1  0
  5  4  1  0
 12 14  1  0
  2  3  1  6
  2  8  1  0
  2  9  1  0
  3  6  1  0
  3 13  1  0
  8 11  1  0
  9  7  1  1
  9 10  1  0
  4  6  1  1
  4 14  1  0
 11 10  1  0
M  END
