
     RDKit          3D

 18 20  0  0  0  0  0  0  0  0999 V2000
  -30.1590    4.2090  -64.2760 C   0  0  0  0  0  0  0  0  0  0  0  0
  -27.3490    4.2270  -64.9620 C   0  0  0  0  0  0  0  0  0  0  0  0
  -30.6160   -0.4480  -63.2710 C   0  0  0  0  0  0  0  0  0  0  0  0
  -28.9310    9.6590  -63.0190 C   0  0  0  0  0  0  0  0  0  0  0  0
  -29.1310    8.3580  -63.5670 C   0  0  0  0  0  0  0  0  0  0  0  0
  -27.8490    7.8480  -63.7490 C   0  0  0  0  0  0  0  0  0  0  0  0
  -26.9080    8.7420  -63.3550 O   0  0  0  0  0  0  0  0  0  0  0  0
  -27.5890    9.8290  -62.9050 C   0  0  0  0  0  0  0  0  0  0  0  0
  -27.2970    6.6070  -64.3050 C   0  0  0  0  0  0  0  0  0  0  0  0
  -26.1060    6.6250  -64.6180 O   0  0  0  0  0  0  0  0  0  0  0  0
  -28.0840    5.4490  -64.5100 N   0  0  0  0  0  0  0  0  0  0  0  0
  -29.1560    5.0900  -63.5510 C   0  0  0  0  0  0  0  0  0  0  0  0
  -29.4650    2.9310  -64.4480 N   0  0  0  0  0  0  0  0  0  0  0  0
  -28.2960    3.0680  -65.3790 C   0  0  0  0  0  0  0  0  0  0  0  0
  -30.2830    1.8000  -64.5770 C   0  0  0  0  0  0  0  0  0  0  0  0
  -31.3960    1.9010  -65.1370 O   0  0  0  0  0  0  0  0  0  0  0  0
  -29.7040    0.5220  -64.0190 C   0  0  1  0  0  0  0  0  0  0  0  0
  -29.6400    0.4190  -62.5050 C   0  0  0  0  0  0  0  0  0  0  0  0
  1 12  1  0
  1 13  1  0
 12 11  1  0
 13 14  1  0
 13 15  1  0
  2 11  1  0
  2 14  1  0
 11  9  1  0
  3 17  1  0
  3 18  1  0
 17 15  1  1
 17 18  1  0
  4  5  1  0
  4  8  1  0
  5  6  1  0
  8  7  1  0
  6  7  1  0
  6  9  1  0
  9 10  1  0
 15 16  1  0
M  END
