
     RDKit          3D

  9  8  0  0  0  0  0  0  0  0999 V2000
    5.2460   54.0630  105.9240 C   0  0  0  0  0  0  0  0  0  0  0  0
    4.5810   54.5220  107.2050 C   0  0  0  0  0  0  0  0  0  0  0  0
    3.7410   55.7770  107.0170 C   0  0  0  0  0  0  0  0  0  0  0  0
    4.5880   56.9960  106.6560 C   0  0  0  0  0  0  0  0  0  0  0  0
    3.7190   58.2450  106.6150 C   0  0  0  0  0  0  0  0  0  0  0  0
    4.5540   59.5070  106.6920 C   0  0  0  0  0  0  0  0  0  0  0  0
    3.6950   60.7190  107.0430 C   0  0  0  0  0  0  0  0  0  0  0  0
    2.9910   60.6230  108.3890 C   0  0  0  0  0  0  0  0  0  0  0  0
    4.5170   53.6050  105.0200 O   0  0  0  0  0  0  0  0  0  0  0  0
  1  2  1  0
  1  9  1  0
  2  3  1  0
  3  4  1  0
  4  5  1  0
  5  6  1  0
  6  7  1  0
  7  8  1  0
M  END
$$$$

     RDKit          3D

  9  8  0  0  0  0  0  0  0  0999 V2000
   -2.1530   76.0780   95.0830 C   0  0  0  0  0  0  0  0  0  0  0  0
   -1.9720   76.7620   96.4230 C   0  0  0  0  0  0  0  0  0  0  0  0
   -1.2280   75.8860   97.4250 C   0  0  0  0  0  0  0  0  0  0  0  0
   -2.0800   74.7130   97.8930 C   0  0  0  0  0  0  0  0  0  0  0  0
   -1.2370   73.6990   98.6540 C   0  0  0  0  0  0  0  0  0  0  0  0
   -2.0900   72.5950   99.2460 C   0  0  0  0  0  0  0  0  0  0  0  0
   -2.6360   72.9740  100.6210 C   0  0  0  0  0  0  0  0  0  0  0  0
   -1.5770   72.9870  101.7150 C   0  0  0  0  0  0  0  0  0  0  0  0
   -1.1220   75.8650   94.4130 O   0  0  0  0  0  0  0  0  0  0  0  0
  1  2  1  0
  1  9  1  0
  2  3  1  0
  3  4  1  0
  4  5  1  0
  5  6  1  0
  6  7  1  0
  7  8  1  0
M  END
$$$$

     RDKit          3D

  9  8  0  0  0  0  0  0  0  0999 V2000
   36.6770   94.4580  138.7130 C   0  0  0  0  0  0  0  0  0  0  0  0
   37.3730   93.9190  137.4730 C   0  0  0  0  0  0  0  0  0  0  0  0
   37.5130   92.4030  137.5010 C   0  0  0  0  0  0  0  0  0  0  0  0
   38.5490   91.9180  138.5120 C   0  0  0  0  0  0  0  0  0  0  0  0
   38.4570   90.3970  138.6800 C   0  0  0  0  0  0  0  0  0  0  0  0
   39.7090   89.8150  139.3180 C   0  0  0  0  0  0  0  0  0  0  0  0
   40.7290   89.4190  138.2620 C   0  0  0  0  0  0  0  0  0  0  0  0
   40.3280   88.2230  137.4180 C   0  0  0  0  0  0  0  0  0  0  0  0
   35.4560   94.2200  138.8340 O   0  0  0  0  0  0  0  0  0  0  0  0
  1  2  1  0
  1  9  1  0
  2  3  1  0
  3  4  1  0
  4  5  1  0
  5  6  1  0
  6  7  1  0
  7  8  1  0
M  END
$$$$

     RDKit          3D

  9  8  0  0  0  0  0  0  0  0999 V2000
   38.6680   70.5630  147.8970 C   0  0  0  0  0  0  0  0  0  0  0  0
   39.9470   70.4120  147.1020 C   0  0  0  0  0  0  0  0  0  0  0  0
   40.4340   71.7420  146.5330 C   0  0  0  0  0  0  0  0  0  0  0  0
   39.4360   72.3400  145.5400 C   0  0  0  0  0  0  0  0  0  0  0  0
   40.0090   73.5850  144.8510 C   0  0  0  0  0  0  0  0  0  0  0  0
   39.8050   73.5270  143.3380 C   0  0  0  0  0  0  0  0  0  0  0  0
   40.4790   74.6880  142.6100 C   0  0  0  0  0  0  0  0  0  0  0  0
   41.9990   74.7060  142.6790 C   0  0  0  0  0  0  0  0  0  0  0  0
   38.7280   71.2800  148.9160 O   0  0  0  0  0  0  0  0  0  0  0  0
  1  2  1  0
  1  9  1  0
  2  3  1  0
  3  4  1  0
  4  5  1  0
  5  6  1  0
  6  7  1  0
  7  8  1  0
M  END
$$$$
