
     RDKit          3D

  9  8  0  0  0  0  0  0  0  0999 V2000
   38.6680   70.5630  147.8970 C   0  0  0  0  0  0  0  0  0  0  0  0
   39.9470   70.4120  147.1020 C   0  0  0  0  0  0  0  0  0  0  0  0
   40.4340   71.7420  146.5330 C   0  0  0  0  0  0  0  0  0  0  0  0
   39.4360   72.3400  145.5400 C   0  0  0  0  0  0  0  0  0  0  0  0
   40.0090   73.5850  144.8510 C   0  0  0  0  0  0  0  0  0  0  0  0
   39.8050   73.5270  143.3380 C   0  0  0  0  0  0  0  0  0  0  0  0
   40.4790   74.6880  142.6100 C   0  0  0  0  0  0  0  0  0  0  0  0
   41.9990   74.7060  142.6790 C   0  0  0  0  0  0  0  0  0  0  0  0
   38.7280   71.2800  148.9160 O   0  0  0  0  0  0  0  0  0  0  0  0
  1  2  1  0
  1  9  1  0
  2  3  1  0
  3  4  1  0
  4  5  1  0
  5  6  1  0
  6  7  1  0
  7  8  1  0
M  END
