
     RDKit          3D

  9  8  0  0  0  0  0  0  0  0999 V2000
    5.2460   54.0630  105.9240 C   0  0  0  0  0  0  0  0  0  0  0  0
    4.5810   54.5220  107.2050 C   0  0  0  0  0  0  0  0  0  0  0  0
    3.7410   55.7770  107.0170 C   0  0  0  0  0  0  0  0  0  0  0  0
    4.5880   56.9960  106.6560 C   0  0  0  0  0  0  0  0  0  0  0  0
    3.7190   58.2450  106.6150 C   0  0  0  0  0  0  0  0  0  0  0  0
    4.5540   59.5070  106.6920 C   0  0  0  0  0  0  0  0  0  0  0  0
    3.6950   60.7190  107.0430 C   0  0  0  0  0  0  0  0  0  0  0  0
    2.9910   60.6230  108.3890 C   0  0  0  0  0  0  0  0  0  0  0  0
    4.5170   53.6050  105.0200 O   0  0  0  0  0  0  0  0  0  0  0  0
  1  2  1  0
  1  9  1  0
  2  3  1  0
  3  4  1  0
  4  5  1  0
  5  6  1  0
  6  7  1  0
  7  8  1  0
M  END
